python/src/tests/widearea_pss/IEEE39bus_mod3_v23_pslf.raw
0  100.000

                                               
      1, 1,     0.000,     0.000,  0.000000,  0.000000,   1,1.038660,-3.120201,' LBUS01 ',345.0000,   1
      2, 1,     0.000,     0.000,  0.000000,  0.000000,   1,1.028400, 0.625600,' LBUS02 ',345.0000,   1
      3, 1,   822.000,     2.400,  0.000000,  0.000000,   1,0.993240,-3.234601,' LBUS03 ',345.0000,   1
      4, 1,  1100.000,   184.000,  0.000000,  0.000000,   1,0.980580,-6.656302,' LBUS04 ',345.0000,   1
      5, 1,     0.000,     0.000,  0.000000,  0.000000,   1,1.003080,-5.436702,' LBUS05 ',345.0000,   1
      6, 1,     0.000,     0.000,  0.000000,  0.000000,   1,1.008940,-4.771702,' LBUS06 ',345.0000,   1
      7, 1,   233.800,    40.000,  0.000000,  0.000000,   1,0.999560,-6.855703,' LBUS07 ',345.0000,   1
      8, 1,   522.000,   176.000,  0.000000,  0.000000,   1,0.997160,-7.294603,' LBUS08 ',345.0000,   1
      9, 1,     0.000,     0.000,  0.000000,  0.000000,   1,1.028710,-6.156102,' LBUS09 ',345.0000,   1
     10, 1,     0.000,     0.000,  0.000000,  0.000000,   1,1.007820,-0.922600,' LBUS10 ',345.0000,   1
     11, 1,     0.000,     0.000,  0.000000,  0.000000,   1,1.006430,-2.216401,' LBUS11 ',345.0000,   1
     12, 1,     8.500,    88.000,  0.000000,  0.000000,   1,0.989680,-1.763301,' LBUS12 ',154.0000,   1
     13, 1,     0.000,     0.000,  0.000000,  0.000000,   1,1.000260,-1.174101,' LBUS13 ',345.0000,   1
     14, 1,     0.000,     0.000,  0.000000,  0.000000,   1,0.985330,-1.650401,' LBUS14 ',345.0000,   1
     15, 1,   320.000,    53.000,  0.000000,  0.000000,   1,0.971790, 5.821103,' LBUS15 ',345.0000,   1
     16, 1,   329.400,   -23.000,  0.000000,  0.000000,   1,0.979690,10.873904,' LBUS16 ',345.0000,   1
     17, 1,     0.000,     0.000,  0.000000,  0.000000,   1,0.983550, 5.649703,' LBUS17 ',345.0000,   1
     18, 1,   158.000,    30.000,  0.000000,  0.000000,   1,0.982940, 1.770701,' LBUS18 ',345.0000,   1
     19, 1,     0.000,     0.000,  0.000000,  0.000000,   1,1.003020,30.140814,' LBUS19 ',345.0000,   1
     20, 1,   628.000,   103.000,  0.000000,  0.000000,   1,0.954450,35.073914,' LBUS20 ',345.0000,   1
     21, 1,   274.000,   115.000,  0.000000,  0.000000,   1,0.992530,14.286506,' LBUS21 ',345.0000,   1
     22, 1,     0.000,     0.000,  0.000000,  0.000000,   1,1.027120,19.785507,' LBUS22 ',345.0000,   1
     23, 1,   247.500,    84.600,  0.000000,  0.000000,   1,1.020130,20.136208,' LBUS23 ',345.0000,   1
     24, 1,   308.600,   -92.200,  0.000000,  0.000000,   1,0.988470,11.319304,' LBUS24 ',345.0000,   1
     25, 1,   224.000,    47.200,  0.000000,  0.000000,   1,1.045910, 2.856401,' LBUS25 ',345.0000,   1
     26, 1,   139.000,    17.000,  0.000000,  0.000000,   1,1.024350, 4.502802,' LBUS26 ',345.0000,   1
     27, 1,   281.000,    75.500,  0.000000,  0.000000,   1,0.999700, 3.775602,' LBUS27 ',345.0000,   1
     28, 1,   206.000,    27.600,  0.000000,  0.000000,   1,1.027450, 8.162703,' LBUS28 ',345.0000,   1
     29, 1,   283.500,   126.900,  0.000000,  0.000000,   1,1.029310,11.028905,' LBUS29 ',345.0000,   1
     30, 2,     0.000,     0.000,  0.000000,  0.000000,   1,1.047500, 3.093201,' GBUS30 ', 22.0000,   1
     31, 3,     9.200,     4.600,  0.000000,  0.000000,   1,1.040000, 0.000000,' GBUS31 ', 22.0000,   1
     32, 2,     0.000,     0.000,  0.000000,  0.000000,   1,0.983100, 7.148003,' GBUS32 ', 22.0000,   1
     33, 2,     0.000,     0.000,  0.000000,  0.000000,   1,0.997200,39.843014,' GBUS33 ', 22.0000,   1
     34, 2,     0.000,     0.000,  0.000000,  0.000000,   1,1.012300,47.951920,' GBUS34 ', 22.0000,   1
     35, 2,     0.000,     0.000,  0.000000,  0.000000,   1,1.049300,24.857010,' GBUS35 ', 22.0000,   1
     36, 2,     0.000,     0.000,  0.000000,  0.000000,   1,1.063500,31.059311,' GBUS36 ', 22.0000,   1
     37, 2,     0.000,     0.000,  0.000000,  0.000000,   1,1.027800, 9.700204,' GBUS37 ', 22.0000,   1
     38, 2,     0.000,     0.000,  0.000000,  0.000000,   1,1.026500,18.175108,' GBUS38 ', 22.0000,   1
     39, 2,  1104.000,   250.000,  0.000000,  0.000000,   1,1.030000,-5.324603,' GBUS39 ',345.0000,   1
0
    30,'1 ',   250.000,   261.079,  9900.000, -9999.000,1.047500,     0,  1000.000,   0.00000,   0.22400,   0.00000,   0.00000,   1.00000,1,  100.0,  9999.000, -9999.000
    31,'1 ',   335.508,   421.993,  9900.000, -9999.000,1.040000,     0,  1000.000,   0.00000,   0.20290,   0.00000,   0.00000,   1.00000,1,  100.0,  9999.000, -9999.000
    32,'1 ',   650.000,   248.421,  9900.000, -9999.000,0.983100,     0,  1000.000,   0.00000,   0.28050,   0.00000,   0.00000,   1.00000,1,  100.0,  9999.000, -9999.000
    33,'1 ',  1132.000,   458.274,  9900.000, -9999.000,0.997200,     0,  2000.000,   0.00000,   0.23300,   0.00000,   0.00000,   1.00000,1,  100.0,  9999.000, -9999.000
    34,'1 ',  1208.000,   446.643,  9900.000, -9999.000,1.012300,     0,  2000.000,   0.00000,   0.20290,   0.00000,   0.00000,   1.00000,1,  100.0,  9999.000, -9999.000
    35,'1 ',   650.000,   375.353,  9900.000, -9999.000,1.049300,     0,  1000.000,   0.00000,   0.31400,   0.00000,   0.00000,   1.00000,1,  100.0,  9999.000, -9999.000
    36,'1 ',   760.000,   227.858,  9900.000, -9999.000,1.063500,     0,  1000.000,   0.00000,   0.21500,   0.00000,   0.00000,   1.00000,1,  100.0,  9999.000, -9999.000
    37,'1 ',   540.000,    51.033,  9900.000, -9999.000,1.027800,     0,  1000.000,   0.00000,   0.21500,   0.00000,   0.00000,   1.00000,1,  100.0,  9999.000, -9999.000
    38,'1 ',   830.000,   155.455,  9900.000, -9999.000,1.026500,     0,  1000.000,   0.00000,   0.24600,   0.00000,   0.00000,   1.00000,1,  100.0,  9999.000, -9999.000
    39,'1 ',  1000.000,   123.972,  9900.000, -9999.000,1.030000,     0,  1000.000,   0.00000,   0.00500,   0.00000,   0.00000,   1.00000,1,  100.0,  9999.000, -9999.000
0 / END OF GENERATOR DATA, BEGIN BRANCH DATA
      1,      2,'1 ',  0.00350,  0.04110,  0.69870,   0.00,   0.00,   0.00,0.00000,000.000, 0.00000, 0.00000, 0.00000, 0.00000, 1
      1,     39,'1 ',  0.00100,  0.02500,  0.75000,   0.00,   0.00,   0.00,0.00000,000.000, 0.00000, 0.00000, 0.00000, 0.00000, 1
      2,      3,'1 ',  0.00130,  0.01510,  0.25720,   0.00,   0.00,   0.00,0.00000,000.000, 0.00000, 0.00000, 0.00000, 0.00000, 1
      2,     25,'1 ',  0.00700,  0.00860,  0.14600,   0.00,   0.00,   0.00,0.00000,000.000, 0.00000, 0.00000, 0.00000, 0.00000, 1
      2,     30,'1 ',  0.00000,  0.01810,  0.00000,   0.00,   0.00,   0.00,1.025000,0.000000,0.000000,0.000000,00.00000,00.00000, 1
      3,      4,'1 ',  0.00130,  0.02130,  0.22140,   0.00,   0.00,   0.00,0.00000,000.000, 0.00000, 0.00000, 0.00000, 0.00000, 1
      3,     18,'1 ',  0.00110,  0.01330,  0.21380,   0.00,   0.00,   0.00,0.00000,000.000, 0.00000, 0.00000, 0.00000, 0.00000, 1
      4,      5,'1 ',  0.00080,  0.01280,  0.13420,   0.00,   0.00,   0.00,0.00000,000.000, 0.00000, 0.00000, 0.00000, 0.00000, 1
      4,     14,'1 ',  0.00080,  0.01290,  0.13820,   0.00,   0.00,   0.00,0.00000,000.000, 0.00000, 0.00000, 0.00000, 0.00000, 1
      5,      6,'1 ',  0.00020,  0.00260,  0.04340,   0.00,   0.00,   0.00,0.00000,000.000, 0.00000, 0.00000, 0.00000, 0.00000, 1
      5,      8,'1 ',  0.00080,  0.01120,  0.14760,   0.00,   0.00,   0.00,0.00000,000.000, 0.00000, 0.00000, 0.00000, 0.00000, 1
      6,      7,'1 ',  0.00060,  0.00920,  0.11300,   0.00,   0.00,   0.00,0.00000,000.000, 0.00000, 0.00000, 0.00000, 0.00000, 1
      6,     11,'1 ',  0.00070,  0.00820,  0.13890,   0.00,   0.00,   0.00,0.00000,000.000, 0.00000, 0.00000, 0.00000, 0.00000, 1
      6,     31,'1 ',  0.00000,  0.02500,  0.00000,   0.00,   0.00,   0.00,1.070000,0.000000,0.000000,0.000000,00.00000,00.00000, 1
      7,      8,'1 ',  0.00040,  0.00460,  0.07800,   0.00,   0.00,   0.00,0.00000,000.000, 0.00000, 0.00000, 0.00000, 0.00000, 1
      8,      9,'1 ',  0.00230,  0.03630,  0.38040,   0.00,   0.00,   0.00,0.00000,000.000, 0.00000, 0.00000, 0.00000, 0.00000, 1
      9,     39,'1 ',  0.00100,  0.02500,  1.20000,   0.00,   0.00,   0.00,0.00000,000.000, 0.00000, 0.00000, 0.00000, 0.00000, 1
     10,     11,'1 ',  0.00040,  0.00430,  0.07290,   0.00,   0.00,   0.00,0.00000,000.000, 0.00000, 0.00000, 0.00000, 0.00000, 1
     10,     13,'1 ',  0.00040,  0.00430,  0.07290,   0.00,   0.00,   0.00,0.00000,000.000, 0.00000, 0.00000, 0.00000, 0.00000, 1
     10,     32,'1 ',  0.00000,  0.02000,  0.00000,   0.00,   0.00,   0.00,1.070000,0.000000,0.000000,0.000000,00.00000,00.00000, 1
     12,     11,'1 ',  0.00160,  0.04350,  0.00000,   0.00,   0.00,   0.00,1.006000,0.000000,0.000000,0.000000,00.00000,00.00000, 1
     12,     13,'1 ',  0.00160,  0.04350,  0.00000,   0.00,   0.00,   0.00,1.006000,0.000000,0.000000,0.000000,00.00000,00.00000, 1
     13,     14,'1 ',  0.00090,  0.01010,  0.17230,   0.00,   0.00,   0.00,0.00000,000.000, 0.00000, 0.00000, 0.00000, 0.00000, 1
     14,     15,'1 ',  0.00180,  0.02170,  0.36600,   0.00,   0.00,   0.00,0.00000,000.000, 0.00000, 0.00000, 0.00000, 0.00000, 1
     15,     16,'1 ',  0.00090,  0.00940,  0.17100,   0.00,   0.00,   0.00,0.00000,000.000, 0.00000, 0.00000, 0.00000, 0.00000, 1
     16,     17,'1 ',  0.00070,  0.00890,  0.13420,   0.00,   0.00,   0.00,0.00000,000.000, 0.00000, 0.00000, 0.00000, 0.00000, 1
     16,     19,'1 ',  0.00160,  0.01950,  0.30400,   0.00,   0.00,   0.00,0.00000,000.000, 0.00000, 0.00000, 0.00000, 0.00000, 1
     16,     21,'1 ',  0.00080,  0.01350,  0.25480,   0.00,   0.00,   0.00,0.00000,000.000, 0.00000, 0.00000, 0.00000, 0.00000, 1
     16,     24,'1 ',  0.00030,  0.00590,  0.06800,   0.00,   0.00,   0.00,0.00000,000.000, 0.00000, 0.00000, 0.00000, 0.00000, 1
     17,     18,'1 ',  0.00070,  0.00820,  0.13190,   0.00,   0.00,   0.00,0.00000,000.000, 0.00000, 0.00000, 0.00000, 0.00000, 1
     17,     27,'1 ',  0.00130,  0.01730,  0.32160,   0.00,   0.00,   0.00,0.00000,000.000, 0.00000, 0.00000, 0.00000, 0.00000, 1
     19,     20,'1 ',  0.00070,  0.01380,  0.00000,   0.00,   0.00,   0.00,1.060000,0.000000,0.000000,0.000000,00.00000,00.00000, 1
     19,     33,'1 ',  0.00070,  0.01420,  0.00000,   0.00,   0.00,   0.00,1.070000,0.000000,0.000000,0.000000,00.00000,00.00000, 1
     20,     34,'1 ',  0.00090,  0.01800,  0.00000,   0.00,   0.00,   0.00,1.009000,0.000000,0.000000,0.000000,00.00000,00.00000, 1
     21,     22,'1 ',  0.00080,  0.01400,  0.25650,   0.00,   0.00,   0.00,0.00000,000.000, 0.00000, 0.00000, 0.00000, 0.00000, 1
     22,     23,'1 ',  0.00060,  0.00960,  0.18460,   0.00,   0.00,   0.00,0.00000,000.000, 0.00000, 0.00000, 0.00000, 0.00000, 1
     22,     35,'1 ',  0.00000,  0.01430,  0.00000,   0.00,   0.00,   0.00,1.025000,0.000000,0.000000,0.000000,00.00000,00.00000, 1
     23,     24,'1 ',  0.00220,  0.03500,  0.36100,   0.00,   0.00,   0.00,0.00000,000.000, 0.00000, 0.00000, 0.00000, 0.00000, 1
     23,     36,'1 ',  0.00050,  0.02720,  0.00000,   0.00,   0.00,   0.00,1.000000,0.000000,0.000000,0.000000,00.00000,00.00000, 1
     25,     26,'1 ',  0.00320,  0.03230,  0.51300,   0.00,   0.00,   0.00,0.00000,000.000, 0.00000, 0.00000, 0.00000, 0.00000, 1
     25,     37,'1 ',  0.00060,  0.02320,  0.00000,   0.00,   0.00,   0.00,1.025000,0.000000,0.000000,0.000000,00.00000,00.00000, 1
     26,     27,'1 ',  0.00140,  0.01470,  0.23960,   0.00,   0.00,   0.00,0.00000,000.000, 0.00000, 0.00000, 0.00000, 0.00000, 1
     26,     28,'1 ',  0.00430,  0.04740,  0.78020,   0.00,   0.00,   0.00,0.00000,000.000, 0.00000, 0.00000, 0.00000, 0.00000, 1
     26,     29,'1 ',  0.00570,  0.06250,  1.02900,   0.00,   0.00,   0.00,0.00000,000.000, 0.00000, 0.00000, 0.00000, 0.00000, 1
     28,     29,'1 ',  0.00140,  0.01510,  0.24900,   0.00,   0.00,   0.00,0.00000,000.000, 0.00000, 0.00000, 0.00000, 0.00000, 1
     29,     38,'1 ',  0.00080,  0.01560,  0.00000,   0.00,   0.00,   0.00,1.025000,0.000000,0.000000,0.000000,00.00000,00.00000, 1
0 / END OF BRANCH DATA, BEGIN TRANSFORMER ADJUSTMENT DATA
      6,     31,'1 ',     6,1.100000,0.900000,1.170000,0.910000,0.006250,  0, 1,0.00000, 0.00000
0 / END OF TRANSFORMER ADJUSTMENT DATA, BEGIN AREA DATA
0 / END OF AREA DATA, BEGIN TWO-TERMINAL DC DATA
0 / END OF TWO-TERMINAL DC DATA, BEGIN SWITCHED SHUNT DATA
0 / END OF SWITCHED SHUNT DATA, BEGIN IMPEDANCE CORRECTION DATA
0 / END OF IMPEDANCE CORRECTION DATA, BEGIN MULTI-TERMINAL DC DATA
0 / END OF MULTI-TERMINAL DC DATA, BEGIN MULTI-SECTION LINE DATA
0 / END OF MULTI-SECTION LINE DATA, BEGIN ZONE DATA
    1,'ZONE_1      '
0 / END OF ZONE DATA, BEGIN INTER-AREA TRANSFER DATA
0 / END OF INTER-AREA TRANSFER DATA, BEGIN OWNER DATA
0 / END OF OWNER DATA, BEGIN FACTS DEVICE DATA
